k23/D023303/LineCodes.dss
New Linecode.25AL_ABC_3 units=km nphases=3 Faultrate=0.1 Cmatrix=(2799.9999999999995 -600.0 -600.0 | -600.0 2799.9999999999995 -600.0 | -600.0 -600.0 2799.9999999999995 ) R1=1.49 R0=1.49 X1=0.102 X0=0.102 C1=0.0 C0=0.0 BaseFreq=50 normamps=400.0 emergamps=600.0
New Linecode.38_HD_CU_3 units=km nphases=3 Faultrate=0.1 Cmatrix=(2799.9999999999995 -600.0 -600.0 | -600.0 2799.9999999999995 -600.0 | -600.0 -600.0 2799.9999999999995 ) R1=0.433 R0=0.433 X1=0.378 X0=0.378 C1=0.0 C0=0.0 BaseFreq=50 normamps=400.0 emergamps=600.0
New Linecode.7/.080_CU_(7/2.0)_3 units=km nphases=3 Faultrate=0.1 Cmatrix=(2799.9999999999995 -600.0 -600.0 | -600.0 2799.9999999999995 -600.0 | -600.0 -600.0 2799.9999999999995 ) R1=0.519 R0=0.552 X1=0.254 X0=0.271 C1=0.0 C0=0.0 BaseFreq=50 normamps=400.0 emergamps=600.0
New Linecode.unknown_linecode_3 units=km nphases=3 Faultrate=0.1 Cmatrix=(2799.9999999999995 -600.0 -600.0 | -600.0 2799.9999999999995 -600.0 | -600.0 -600.0 2799.9999999999995 ) R1=0.0 R0=0.0 X1=0.0 X0=0.0 C1=0.0 C0=0.0 BaseFreq=50 normamps=400.0 emergamps=600.0
